**
**   Structure: 3-D cylindrical tube
**   Test objective: incompressible, viscous, laminar, 3D fluid flow.
**
*NODE, NSET=Nall
       1,-5.000000000000e-01,0.000000000000e+00,1.000000000000e+01
       2,-3.750000000000e-01,0.000000000000e+00,1.000000000000e+01
       3,-3.285825000000e-01,-1.396695000000e-01,1.000000000000e+01
       4,-4.619400000000e-01,-1.913415000000e-01,1.000000000000e+01
       5,-5.000000000000e-01,0.000000000000e+00,9.750000000000e+00
       6,-3.750000000000e-01,0.000000000000e+00,9.750000000000e+00
       7,-3.283745000000e-01,-1.399490000000e-01,9.750000000000e+00
       8,-4.619400000000e-01,-1.913415000000e-01,9.750000000000e+00
       9,-2.545070000000e-01,-2.547965000000e-01,1.000000000000e+01
      10,-3.535535000000e-01,-3.535535000000e-01,1.000000000000e+01
      11,-2.544010000000e-01,-2.549415000000e-01,9.750000000000e+00
      12,-3.535535000000e-01,-3.535535000000e-01,9.750000000000e+00
      13,-1.395730000000e-01,-3.285875000000e-01,1.000000000000e+01
      14,-1.913415000000e-01,-4.619400000000e-01,1.000000000000e+01
      15,-1.395670000000e-01,-3.287145000000e-01,9.750000000000e+00
      16,-1.913415000000e-01,-4.619400000000e-01,9.750000000000e+00
      17,0.000000000000e+00,-3.750000000000e-01,1.000000000000e+01
      18,0.000000000000e+00,-5.000000000000e-01,1.000000000000e+01
      19,0.000000000000e+00,-3.750000000000e-01,9.750000000000e+00
      20,0.000000000000e+00,-5.000000000000e-01,9.750000000000e+00
** ... 2317 like lines cut
*ELEMENT, TYPE=F3D8, ELSET=Eall
     1,     1,     2,     3,     4,     5,     6,     7,     8
     2,     4,     3,     9,    10,     8,     7,    11,    12
     3,    10,     9,    13,    14,    12,    11,    15,    16
     4,    14,    13,    17,    18,    16,    15,    19,    20
     5,     2,    21,    22,     3,     6,    23,    24,     7
     6,     3,    22,    25,     9,     7,    24,    26,    11
     7,     9,    25,    27,    13,    11,    26,    28,    15
     8,    13,    27,    29,    17,    15,    28,    30,    19
     9,    21,    31,    32,    22,    23,    33,    34,    24
    10,    22,    32,    27,    25,    24,    34,    28,    26
    11,    31,    35,    36,    32,    33,    37,    38,    34
    12,    32,    36,    29,    27,    34,    38,    30,    28
    13,     5,     6,     7,     8,    39,    40,    41,    42
    14,     8,     7,    11,    12,    42,    41,    43,    44
    15,    12,    11,    15,    16,    44,    43,    45,    46
    16,    16,    15,    19,    20,    46,    45,    47,    48
    17,     6,    23,    24,     7,    40,    49,    50,    41
    18,     7,    24,    26,    11,    41,    50,    51,    43
    19,    11,    26,    28,    15,    43,    51,    52,    45
    20,    15,    28,    30,    19,    45,    52,    53,    47
** ... 1900 like lines cut
*NSET,NSET=Nin 
762, 
763, 
765, 
767, 
769, 
771, 
772, 
773, 
774, 
775, 
776, 
777, 
778, 
779, 
1341, 
1342, 
1344, 
1346, 
1348, 
1349, 
** ... 21 like lines cut
*NSET,NSET=Nwall 
1, 
4, 
5, 
8, 
10, 
12, 
14, 
16, 
18, 
20, 
39, 
42, 
44, 
46, 
48, 
58, 
61, 
63, 
65, 
67, 
** ... 620 like lines cut
*MATERIAL,NAME=WATER
*DENSITY
1.
*FLUID CONSTANTS
4217.,1.E-2,293.
*SOLID SECTION,ELSET=Eall,MATERIAL=WATER
*INITIAL CONDITIONS,TYPE=FLUID VELOCITY
Nall,1,0.
Nall,2,0.
Nall,3,1.
*INITIAL CONDITIONS,TYPE=PRESSURE
Nall,1.
*NSET,NSET=Ninp 
761, 
762, 
763, 
764, 
765, 
766, 
767, 
768, 
769, 
770, 
771, 
772, 
773, 
774, 
775, 
776, 
777, 
778, 
779, 
1340, 
** ... 37 like lines cut
*NSET,NSET=Noutp 
1, 
2, 
3, 
4, 
9, 
10, 
13, 
14, 
17, 
18, 
21, 
22, 
25, 
27, 
29, 
31, 
32, 
35, 
36, 
780, 
** ... 37 like lines cut
*NSET,NSET=Nout 
2, 
3, 
9, 
13, 
17, 
21, 
22, 
25, 
27, 
29, 
31, 
32, 
35, 
36, 
781, 
782, 
788, 
792, 
796, 
797, 
** ... 21 like lines cut
*STEP,INCF=2
*STATIC
*BOUNDARY
Nwall,1,3,0.
Ninp,1,2,0.
Ninp,3,3,1.
Noutp,8,8,1.
*NODE PRINT,FREQUENCYF=2,NSET=NALL
V,PS
*END STEP
